LAMMPS (29 Oct 2020)
#~~~~~~~~~~~~~~~~~~~~~~~~
# one SCE cell randomly initialized
# test sce atom type
# test sce ext potential
#~~~~~~~~~~~~~~~~~~~~~~~~

#+++++++++++++++++++
# INITIALIZATION
#+++++++++++++++++++
# units in um, ug, s
units      cell
dimension  3
newton     off
processors * * *
boundary   m m m
atom_style semEM
compute_modify thermo_temp dynamic yes

#+++++++++++++++++++
# PAIRWISE NEIGHBOUR LIST
#+++++++++++++++++++
neighbor      0.45235 bin
neigh_modify  delay 5

#+++++++++++++++++++
# CREATE GEOMETRY
# - could also be read from file
#   using read_date/read_restart
# - here:
#	- define lattice
#	- define a region with id: box
#	- create a simulation box from defined region
#	- create 1000 random atoms in cylindrical region
#	- assign cell ID  1 and poly = 0 to atom
#+++++++++++++++++++
read_restart  900_100_ts7m_mig_100k.restart
Reading restart file ...
  restart file = 29 Oct 2020, LAMMPS = 29 Oct 2020
  restoring atom style semEM from restart
  orthogonal box = (-19.916886 -9.8478179 -10.499084) to (7.0000000 8.6510814 8.2915400)
  restoring pair style hybrid from restart
  1001 atoms
  read_restart CPU = 0.001 seconds
group nucleus type 2
100 atoms in group nucleus
group cytoplasm subtract all nucleus
901 atoms in group cytoplasm
set type 2 cellpart 2
Setting atom values ...
  100 settings made for cellpart
#+++++++++++++++++++
# INIT ATOMS MASS FOR ALL TYPES
#+++++++++++++++++++
mass          1 3.10172e-06
mass          2 3.10172e-06

#+++++++++++++++++++
# DEFINE POTENTIALS
#+++++++++++++++++++
# SEM potential with global cutoff 2.5*r_eq
pair_style    hybrid semEMp 4.5235 semNucM 4.5235
# args = TYPE1 TYPE2 u0_intra u0_inter rho_intra rho_inter alpha_intra alpha_inter r_eq
# args (semNucM) = TYPE1 TYPE2 u0 rho alpha r_eq R_3d/r_eq n_sft cutoff
#pair_coeff    1 1 semextp 47318.5 18927.4 2 2 2 2 1.8094
pair_coeff    1 1 semEMp 47318.5 18927.4 2 2 2 2 1.8094 5.5267 4.5235
pair_coeff    1 2 semNucM 47318.5 2 2 1.8094 5.5267 0 4.523525
#pair_coeff    2 2 semextp 200000 0 2 2 2 2 1.8094 4.523525
pair_coeff    2 2 semEMp 100000 18927.4 2 2 2 2 1.8094 5.5267 4.5235

#+++++++++++++++++++
# DEFINE FIXES
#+++++++++++++++++++
# Do BD using Langevin fix for random fluctuations
# args = T T tau rseed
fix  1 all langevin 57943.7 57943.7 6.20343e-10 8279
# BD requires same tau as for Langevin
fix  2 all bd 6.20343e-10
# args = Nevery nSCEperCell tG0 tGI tM1 tM2 tGI/(nSCE*Tp) LISTOFcellID
#fix  3 all sem_proliferate 1 1000 0 200 0 0 0.5 1

#+++++++++++++++++++
# RUN IT
#+++++++++++++++++++
timestep 0.001
thermo 10000
dump 1 all xyzSemEM 10000 dumpGrowN.xyz
run 1000000
  update every 1 steps, delay 5 steps, check yes
Step Temp E_pair E_mol TotEng Press Volume
7200000   0.56277406 -2.9805944e+08            0 -2.9805943e+08   -8.0211027    9356.5308
Averages over the last 51 of 101 rows, steps 7700000 to 8200000:
Temp E_pair E_mol TotEng Press Volume
0.192331 -3.25577e+08 0 -3.25577e+08 -165.934 10109.6
Loop time of 1333.53 on 1 procs for 1000000 steps with 1001 atoms

#+++++++++++++++++++
# STORE RESTART AND DO DIAGS
#+++++++++++++++++++
write_restart 900_100_ts7m_mig_1_1m.restart
System init for write_restart ...
  update every 1 steps, delay 5 steps, check yes
