LAMMPS (29 Oct 2020)
#~~~~~~~~~~~~~~~~~~~~~~~~
# one SCE cell randomly initialized
# test sce atom type
# test sce ext potential
#~~~~~~~~~~~~~~~~~~~~~~~~

#+++++++++++++++++++
# INITIALIZATION
#+++++++++++++++++++
# units in um, ug, s
units      cell
dimension  3
newton     off
processors * * *
boundary   m m m
atom_style semEM
compute_modify thermo_temp dynamic yes

#+++++++++++++++++++
# PAIRWISE NEIGHBOUR LIST
#+++++++++++++++++++
neighbor      0.45235 bin
neigh_modify  delay 5

#+++++++++++++++++++
# CREATE GEOMETRY
# - could also be read from file
#   using read_date/read_restart
# - here:
#	- define lattice
#	- define a region with id: box
#	- create a simulation box from defined region
#	- create 1000 random atoms in cylindrical region
#	- assign cell ID  1 and poly = 0 to atom
#+++++++++++++++++++
lattice     diamond 1
Lattice spacing in x,y,z = 1.0000000 1.0000000 1.0000000
region      boxReg block -7 7 -7 7 -8.29154 8.29154
create_box  2 boxReg
Created orthogonal box = (-7.0000000 -7.0000000 -8.2915400) to (7.0000000 7.0000000 8.2915400)
region        initCell1 cylinder z 0 0 6 -7.38684 7.38684 units box
create_atoms  1 random 900 8280 initCell1
Created 900 atoms
create_atoms  2 random 100 8280 initCell1
Created 100 atoms
set           region initCell1 cell 1 poly 0
Setting atom values ...
  1000 settings made for cell
  1000 settings made for poly

#+++++++++++++++++++
# INIT ATOMS MASS FOR ALL TYPES
#+++++++++++++++++++
mass          1 3.10172e-06
mass          2 3.10172e-06

#+++++++++++++++++++
# DEFINE POTENTIALS
#+++++++++++++++++++
# SEM potential with global cutoff 2.5*r_eq
pair_style    hybrid semextp 4.5235 semNucM 4.5235
# args = TYPE1 TYPE2 u0_intra u0_inter rho_intra rho_inter alpha_intra alpha_inter r_eq
# args (semNucM) = TYPE1 TYPE2 u0 rho alpha r_eq R_3d/r_eq n_sft cutoff
pair_coeff    1 1 semextp 47318.5 18927.4 2 2 2 2 1.8094
pair_coeff    1 2 semNucM 47318.5 2 2 1.8094 5.5267 0 4.523525
pair_coeff    2 2 semextp 100000 0 2 2 2 2 1.8094

#+++++++++++++++++++
# DEFINE FIXES
#+++++++++++++++++++
# Do BD using Langevin fix for random fluctuations
# args = T T tau rseed
fix  1 all langevin 57943.7 57943.7 6.20343e-10 8279
# BD requires same tau as for Langevin
fix  2 all bd 6.20343e-10
# cell grown between walls (at EDGE of domain -> see region command)
fix  3 all wall/lj93 zhi EDGE 13300.8 1.05397 2.10794 zlo EDGE 13300.8 1.05397 2.10794
# args = Nevery nSCEperCell tG0 tGI tM1 tM2 tGI/(nSCE*Tp) LISTOFcellID
fix  4 all sem_proliferate 1 1000 0 200 0 0 0.5 1
fix  5 all indent 2.47887e+06 cylinder z 0 0 8.90671 side in

#+++++++++++++++++++
# RUN IT
#+++++++++++++++++++
timestep 0.001
thermo 10000
dump 1 all xyzSemEM 10000 dumpGrowN.xyz
run 1000000
  update every 1 steps, delay 5 steps, check yes
Step Temp E_pair E_mol TotEng Press Volume
0   0.07388399 1.8842245e+08            0 1.8842245e+08 0.00031352941    3250.2837
Averages over the last 51 of 101 rows, steps 500000 to 1000000:
Temp E_pair E_mol TotEng Press Volume
0.100782 -3.13796e+08 0 -3.13796e+08 -18.8554 4950.32
Loop time of 505.734 on 4 procs for 1000000 steps with 1000 atoms

#+++++++++++++++++++
# STORE RESTART AND DO DIAGS
#+++++++++++++++++++
write_restart cysce900_nusce100_ts1m.restart
System init for write_restart ...
  update every 1 steps, delay 5 steps, check yes
