LAMMPS (29 Oct 2020)
#~~~~~~~~~~~~~~~~~~~~~~~~
# one SCE cell randomly initialized
# test sce atom type
# test sce ext potential
#~~~~~~~~~~~~~~~~~~~~~~~~

#+++++++++++++++++++
# INITIALIZATION
#+++++++++++++++++++
# units in um, ug, s
units      cell
dimension  3
newton     off
processors * * *
boundary   m m m
atom_style semEM
compute_modify thermo_temp dynamic yes
atom_modify map yes

#+++++++++++++++++++
# PAIRWISE NEIGHBOUR LIST
#+++++++++++++++++++
neighbor      0.45235 bin
neigh_modify  delay 5

read_restart cell_mult_nuc_1.restart
Reading restart file ...
  restart file = 29 Oct 2020, LAMMPS = 29 Oct 2020
  restoring atom style semEM from restart
  orthogonal box = (-100.00000 -100.00000 -40.000000) to (100.00000 100.00000 40.000000)
  restoring pair style hybrid from restart
  3500 atoms
  read_restart CPU = 0.005 seconds
#create_atoms 4 single 0 0 20
set type 3 cellpart 4
Setting atom values ...
  2500 settings made for cellpart
set type 4 cellpart 5
Setting atom values ...
  0 settings made for cellpart
variable    cellelem atom "type == 1 || type == 2"
group cell_group dynamic all var cellelem
dynamic group cell_group defined
group cyto type 1
900 atoms in group cyto
group nucleus type 2
100 atoms in group nucleus
group ecm_glass type 3 4
2500 atoms in group ecm_glass
region bottom_block block -50 50 -50 50 -11 -9.5 units box
group bottom region bottom_block
481 atoms in group bottom

#+++++++++++++++++++
# DEFINE POTENTIALS
#+++++++++++++++++++
# SEM potential with global cutoff 2.5*r_eq
pair_style    hybrid semEMp 4.522520848255137 semNucM 4.522520848255137 lj/cut 9.522520848255137
pair_coeff    1 1 semEMp 114014.4148165376 45605.76592661504 2 2 2 2 1.809008339302055 5.527890492676315 4.522520848255137
pair_coeff    1 2 semNucM 171021.6222248064 2 2 1.809008339302055 5.527890492676315 0 4.522520848255137
pair_coeff    2 2 semEMp 425477.8367841409 0.0 2 2 2 2 1.809008339302055 5.527890492676315 4.522520848255137
pair_coeff    1 3 lj/cut 60000 5 15
pair_coeff    2 3 none
pair_coeff    3 3 none
pair_coeff    1 4 lj/cut 50000 5 5
pair_coeff    2 4 none
pair_coeff    3 4 none
pair_coeff    4 4 none
pair_coeff    1 5 none
pair_coeff    2 5 none
pair_coeff    3 5 none
pair_coeff    4 5 none
pair_coeff    5 5 none
pair_coeff    1 6 none
pair_coeff    2 6 none
pair_coeff    3 6 none
pair_coeff    4 6 none
pair_coeff    5 6 none
pair_coeff    6 6 none
timestep 0.001
compute strs cell_group stress/atom NULL
variable vol_stress atom (c_strs[1]+c_strs[2]+c_strs[3])/3
#+++++++++++++++++++
# DEFINE FIXES
#+++++++++++++++++++
# Do BD using Langevin fix for random fluctuations
# args = T T tau rseed
fix  1 cyto langevin 57943.7 57943.7 6.221784385976299e-11 60253
# BD requires same tau as for Langevin
fix  2 cyto bd 6.221784385976299e-11
fix  3 nucleus langevin 57943.7 57943.7 1.5494800964594704e-11 91830
fix  4 nucleus bd 1.5494800964594704e-11
#thermo_style custom step temp pres
thermo 1000
compute nuc_centreofmass nucleus com
compute perim bottom coord/atom cutoff 2.0
thermo_style custom step temp press etotal pe ke c_nuc_centreofmass[*]
dump 1 cell_group custom 1000 dump.atom_info id type x y z c_perim
dump 2 cell_group xyzSemEM 1000 cell.xyz
run 0
Unused restart file global fix info:
  fix style: move, fix ID: peri_velocity
Unused restart file peratom fix info:
  fix style: move, fix ID: peri_velocity
  update every 1 steps, delay 5 steps, check yes
Step Temp Press TotEng PotEng KinEng c_nuc_centreofmass[1] c_nuc_centreofmass[2] c_nuc_centreofmass[3]
200000 0.0025441698   -207.44614 -1.7289814e+09 -1.7289814e+09   0.18435928   0.87116706   -4.5833752   -7.0217976
Loop time of 0 on 1 procs for 0 steps with 3500 atoms

variable peri_atom atom "c_perim>0 && c_perim<8"
group peri_atom_grp variable peri_atom
90 atoms in group peri_atom_grp
fix peri_velocity peri_atom_grp move linear 0 0 0
run 100000
  update every 1 steps, delay 5 steps, check yes
Step Temp Press TotEng PotEng KinEng c_nuc_centreofmass[1] c_nuc_centreofmass[2] c_nuc_centreofmass[3]
200000 0.0026325132   -207.44614 -1.7289814e+09 -1.7289814e+09   0.19076095   0.87116706   -4.5833752   -7.0217976
Averages over the last 51 of 101 rows, steps 250000 to 300000:
Temp Press TotEng PotEng KinEng c_nuc_centreofmass[1] c_nuc_centreofmass[2] c_nuc_centreofmass[3]
0.00202667 -193.52 -1.74338e+09 -1.74338e+09 0.146859 0.733282 -4.33325 -7.10814
Loop time of 188.467 on 1 procs for 100000 steps with 3500 atoms

undump 1
undump 2
variable nuc_cmx equal $(c_nuc_centreofmass[1])
variable nuc_cmx equal 0.70918631178490210143
variable nuc_cmy equal $(c_nuc_centreofmass[2])
variable nuc_cmy equal -4.3321515905210619124
variable z_ind equal 10
variable x equal vdisplace(v_z_ind,-1)
fix  indn all indent 500000 sphere v_nuc_cmx v_nuc_cmy v_x 5 side out units box

thermo_style custom step temp f_indn[1] f_indn[2] f_indn[3] v_nuc_cmx c_nuc_centreofmass[1] v_nuc_cmy c_nuc_centreofmass[2]
thermo 100
dump 1 cell_group xyzSemEM 100 cell.xyz
dump 2 ecm_glass xyzSemEM 10000 ecm_glass.xyz
#dump 3 cell_group custom 100000 dump.atom_info id type x y z vx vy vz
#dump 3 cell_group custom 100 all_stress.xyz id type x y z c_strs[*] v_vol_stress
dump 3 peri_atom_grp xyzSemEM 100 peri_particles.xyz
variable ts_load equal 14000
variable z_ind_low equal $(v_z_ind-v_ts_load*dt)
variable z_ind_low equal -4
run $(v_ts_load)
run 14000
  update every 1 steps, delay 5 steps, check yes
Step Temp f_indn[1] f_indn[2] f_indn[3] v_nuc_cmx c_nuc_centreofmass[1] v_nuc_cmy c_nuc_centreofmass[2]
300000  0.002040789            0            0            0   0.70918631   0.70918631   -4.3321516   -4.3321516
Averages over the last 71 of 141 rows, steps 307000 to 314000:
Temp f_indn[1] f_indn[2] f_indn[3] v_nuc_cmx c_nuc_centreofmass[1] v_nuc_cmy c_nuc_centreofmass[2]
0.00201973 -519701 -298569 5.83167e+06 0.709186 0.769678 -4.33215 -4.31873
Loop time of 27.7359 on 1 procs for 14000 steps with 3500 atoms

unfix indn
fix  indn all indent 500000 sphere v_nuc_cmx v_nuc_cmy v_z_ind_low 5 side out units box
run 59000
  update every 1 steps, delay 5 steps, check yes
Step Temp f_indn[1] f_indn[2] f_indn[3] v_nuc_cmx c_nuc_centreofmass[1] v_nuc_cmy c_nuc_centreofmass[2]
314000 0.0019844475   -995959.46   -1458799.5     18256424   0.70918631   0.86289983   -4.3321516   -4.2411392
Averages over the last 296 of 591 rows, steps 343500 to 373000:
Temp f_indn[1] f_indn[2] f_indn[3] v_nuc_cmx c_nuc_centreofmass[1] v_nuc_cmy c_nuc_centreofmass[2]
0.0020322 455246 -559824 9.69153e+06 0.709186 0.527378 -4.33215 -4.33009
Loop time of 116.057 on 1 procs for 59000 steps with 3500 atoms

unfix indn
variable y equal vdisplace(v_z_ind_low,1)
fix  indn all indent 500000 sphere v_nuc_cmx v_nuc_cmy v_y 5 side out units box
run 15000
  update every 1 steps, delay 5 steps, check yes
Step Temp f_indn[1] f_indn[2] f_indn[3] v_nuc_cmx c_nuc_centreofmass[1] v_nuc_cmy c_nuc_centreofmass[2]
373000 0.0020482774    445172.03   -432532.95    8965731.9   0.70918631   0.45604182   -4.3321516   -4.4249873
Averages over the last 76 of 151 rows, steps 380500 to 388000:
Temp f_indn[1] f_indn[2] f_indn[3] v_nuc_cmx c_nuc_centreofmass[1] v_nuc_cmy c_nuc_centreofmass[2]
0.00203951 0 0 0 0.709186 0.49705 -4.33215 -4.35416
Loop time of 29.444 on 1 procs for 15000 steps with 3500 atoms
