LAMMPS (29 Oct 2020)
#~~~~~~~~~~~~~~~~~~~~~~~~
# one SCE cell randomly initialized
# test sce atom type
# test sce ext potential
#~~~~~~~~~~~~~~~~~~~~~~~~

#+++++++++++++++++++
# INITIALIZATION
#+++++++++++++++++++
# units in um, ug, s
units      cell
dimension  3
newton     off
processors * * *
boundary   m m m
atom_style semEM
compute_modify thermo_temp dynamic yes
atom_modify map yes

#+++++++++++++++++++
# PAIRWISE NEIGHBOUR LIST
#+++++++++++++++++++
neighbor      0.45235 bin
neigh_modify  delay 5

lattice     diamond 1
Lattice spacing in x,y,z = 1.0000000 1.0000000 1.0000000
region regBox block -70 70 -30 30 -20 20 units box
create_box 6 regBox
Created orthogonal box = (-70.000000 -30.000000 -20.000000) to (70.000000 30.000000 20.000000)
create_atoms  1 random 1000 76354675 regBox
Created 1000 atoms
set           region regBox cell 1 poly 1
Setting atom values ...
  1000 settings made for cell
  1000 settings made for poly
variable atype atomfile type.atom
variable posx atomfile posx.atom
variable posy atomfile posy.atom
variable posz atomfile posz.atom
variable velx atomfile velx.atom
variable vely atomfile vely.atom
variable velz atomfile velz.atom
set atom * type v_atype
Setting atom values ...
  1000 settings made for type
set atom * x v_posx
Setting atom values ...
  1000 settings made for x
set atom * y v_posy
Setting atom values ...
  1000 settings made for y
set atom * z v_posz
Setting atom values ...
  1000 settings made for z
set atom * vx v_velx
Setting atom values ...
  1000 settings made for vx
set atom * vy v_vely
Setting atom values ...
  1000 settings made for vy
set atom * vz v_velz
Setting atom values ...
  1000 settings made for vz
set type 1 cellpart 0
Setting atom values ...
  900 settings made for cellpart
set type 2 cellpart 2
Setting atom values ...
  100 settings made for cellpart

mass 1 3.10172e-06
mass 2 3.10172e-06
mass 3 4e-03
mass 4 4e-03
mass 5 4e-03
mass 6 4e-03

#+++++++++++ Create Sustrate ++++++++++

lattice bcc 2
Lattice spacing in x,y,z = 2.0000000 2.0000000 2.0000000
region regSubstrate block -50 50 -50 50 -15.3 -15 units box
#region regSubstrate cylinder z 0 0 20 -15.3 -15 units box
#region regoutECM block -18 18 -6 6 -15.3 -15 side out units box
#region regGlassECM block -70 70 -30 30 -16 -15 units box
#region regGlass intersect 2 regoutECM regGlassECM
change_box all x final -50 50 y final -50 50 z final -20 20
Changing box ...
  orthogonal box = (-100.00000 -30.000000 -20.000000) to (100.00000 30.000000 20.000000)
  orthogonal box = (-100.00000 -100.00000 -20.000000) to (100.00000 100.00000 20.000000)
  orthogonal box = (-100.00000 -100.00000 -40.000000) to (100.00000 100.00000 40.000000)
create_atoms 3 region regSubstrate basis 1 3
Created 2500 atoms
#create_atoms 4 region regGlass basis 2 4
#set type 3 cellpart 4
set type 4 cellpart 5
Setting atom values ...
  0 settings made for cellpart
variable    cellelem atom "type == 1 || type == 2"
group cell_group dynamic all var cellelem
dynamic group cell_group defined
group nucleus type 2
100 atoms in group nucleus
group cyto type 1
900 atoms in group cyto
group ecm_glass type 3 4
2500 atoms in group ecm_glass

#+++++++++++++++++++
# DEFINE POTENTIALS
#+++++++++++++++++++
# SEM potential with global cutoff 2.5*r_eq
pair_style    hybrid semEMp 4.5235 semNucM 4.5235 lj/cut 9.5235
pair_coeff    1 1 semEMp 141955.5 56782.2 2 2 2 2 1.8094 5.5267 4.5235
pair_coeff    1 2 semNucM 141955.5 2 2 1.8094 5.5267 0 4.523525
pair_coeff    2 2 semEMp 567822 0 2 2 2 2 1.8094 5.5267 4.5235
pair_coeff    1 3 lj/cut 25000 5 15
pair_coeff    2 3 none
pair_coeff    3 3 none
pair_coeff    1 4 lj/cut 50000 5 5
pair_coeff    2 4 none
pair_coeff    3 4 none
pair_coeff    4 4 none
pair_coeff    1 5 none
pair_coeff    2 5 none
pair_coeff    3 5 none
pair_coeff    4 5 none
pair_coeff    5 5 none
pair_coeff    1 6 none
pair_coeff    2 6 none
pair_coeff    3 6 none
pair_coeff    4 6 none
pair_coeff    5 6 none
pair_coeff    6 6 none

timestep 0.001

compute centreofmass cell_group com
variable atom_cmx atom c_centreofmass[1]
variable atom_cmy atom c_centreofmass[2]
variable atom_cmz atom c_centreofmass[3]
compute nuc_centreofmass nucleus com
variable nuc_atom_cmx atom c_nuc_centreofmass[1]
variable nuc_atom_cmy atom c_nuc_centreofmass[2]
variable nuc_atom_cmz atom c_nuc_centreofmass[3]
variable fnucx atom 2*3.10172e-00*((v_atom_cmx-v_nuc_atom_cmx)-vx*dt)/(dt*dt)
variable fnucy atom 2*3.10172e-00*((v_atom_cmy-v_nuc_atom_cmy)-vy*dt)/(dt*dt)
variable fnucz atom 2*3.10172e-00*((v_atom_cmz-v_nuc_atom_cmz)-vz*dt)/(dt*dt)

#+++++++++++++++++++
# DEFINE FIXES
#+++++++++++++++++++
# Do BD using Langevin fix for random fluctuations
# args = T T tau rseed
fix  1 cyto langevin 57943.7 57943.7 2.06781e-10 138278
# BD requires same tau as for Langevin
fix  2 cyto bd 2.06781e-10
fix  3 nucleus langevin 57943.7 57943.7 1.033905e-10 872678
fix  4 nucleus bd 1.033905e-10
fix 5 nucleus addforce v_fnucx v_fnucy 0
#+++++++++++++++++++
# RUN IT
#+++++++++++++++++++

thermo 1000
dump 1 cell_group xyzSemEM 1000 cell.xyz
dump 2 ecm_glass xyzSemEM 100000 ecm_glass.xyz
#dump 3 cell_group custom 100000 dump.atom_info id type x y z vx vy vz
run 100000
  update every 1 steps, delay 5 steps, check yes
Step Temp E_pair E_mol TotEng Press Volume
0  0.038536057 -1.1070508e+09            0 -1.1070508e+09   -21.593164      3200000
Averages over the last 51 of 101 rows, steps 50000 to 100000:
Temp E_pair E_mol TotEng Press Volume
0.0458841 -1.29669e+09 0 -1.29669e+09 -43.4677 3.2e+06
Loop time of 424.392 on 2 procs for 100000 steps with 3500 atoms

write_restart cell_mult_nuc.restart
System init for write_restart ...
  update every 1 steps, delay 5 steps, check yes
