LAMMPS (29 Oct 2020)
#~~~~~~~~~~~~~~~~~~~~~~~~
# one SCE cell randomly initialized
# test sce atom type
# test sce ext potential
#~~~~~~~~~~~~~~~~~~~~~~~~

#+++++++++++++++++++
# INITIALIZATION
#+++++++++++++++++++
# units in um, ug, s
units      cell
dimension  3
newton     off
processors * * *
boundary   m m m
atom_style semEM
compute_modify thermo_temp dynamic yes

#+++++++++++++++++++
# PAIRWISE NEIGHBOUR LIST
#+++++++++++++++++++
neighbor      0.45235 bin
neigh_modify  delay 5

#+++++++++++++++++++
# CREATE GEOMETRY
# - could also be read from file
#   using read_date/read_restart
# - here:
#	- define lattice
#	- define a region with id: box
#	- create a simulation box from defined region
#	- create 1000 random atoms in cylindrical region
#	- assign cell ID  1 and poly = 0 to atom
#+++++++++++++++++++
read_restart  cysce900_nusce100_ts2m.restart
Reading restart file ...
  restart file = 29 Oct 2020, LAMMPS = 29 Oct 2020
  restoring atom style semEM from restart
  orthogonal box = (-9.0871431 -8.2297918 -9.1242032) to (9.1959368 9.2781229 8.8171736)
  restoring pair style hybrid from restart
  1000 atoms
  read_restart CPU = 0.001 seconds

#+++++++++++++++++++
# INIT ATOMS MASS FOR ALL TYPES
#+++++++++++++++++++
mass          1 3.10172e-06
mass          2 3.10172e-06

#+++++++++++++++++++
# DEFINE POTENTIALS
#+++++++++++++++++++
# SEM potential with global cutoff 2.5*r_eq
pair_style    hybrid semextp 4.5235 semNucM 4.5235
# args = TYPE1 TYPE2 u0_intra u0_inter rho_intra rho_inter alpha_intra alpha_inter r_eq
# args (semNucM) = TYPE1 TYPE2 u0 rho alpha r_eq R_3d/r_eq n_sft cutoff
pair_coeff    1 1 semextp 47318.5 18927.4 2 2 2 2 1.8094
pair_coeff    1 2 semNucM 47318.5 2 2 1.8094 5.5267 0 4.523525
pair_coeff    2 2 semextp 200000 0 2 2 2 2 1.8094 30

#+++++++++++++++++++
# DEFINE FIXES
#+++++++++++++++++++
# Do BD using Langevin fix for random fluctuations
# args = T T tau rseed
fix  1 all langevin 57943.7 57943.7 6.20343e-10 8279
# BD requires same tau as for Langevin
fix  2 all bd 6.20343e-10
# cell grown between walls (at EDGE of domain -> see region command)
#fix  3 all wall/lj93 zhi EDGE 13300.8 1.05397 2.10794 zlo EDGE 13300.8 1.05397 2.10794
# args = Nevery nSCEperCell tG0 tGI tM1 tM2 tGI/(nSCE*Tp) LISTOFcellID
fix  3 all sem_proliferate 1 1000 0 200 0 0 0.5 1
#fix  5 all indent 2.47887e+06 cylinder z 0 0 8.90671 side in

#+++++++++++++++++++
# RUN IT
#+++++++++++++++++++
timestep 0.001
thermo 10000
dump 1 all xyzSemEM 10000 dumpGrowN.xyz
run 1000000
  update every 1 steps, delay 5 steps, check yes
Step Temp E_pair E_mol TotEng Press Volume
2000000   0.67039017 -3.3893477e+08            0 -3.3893476e+08    338.49014    5743.1896
Averages over the last 51 of 101 rows, steps 2500000 to 3000000:
Temp E_pair E_mol TotEng Press Volume
1.32421 -3.231e+08 0 -3.231e+08 -2443.52 5922.61
Loop time of 628.403 on 4 procs for 1000000 steps with 1000 atoms

#+++++++++++++++++++
# STORE RESTART AND DO DIAGS
#+++++++++++++++++++
write_restart cysce900_nusce100_ts3m.restart
System init for write_restart ...
  update every 1 steps, delay 5 steps, check yes
